-9.6
     RDKit          3D

 28 31  0  0  0  0  0  0  0  0999 V2000
  -14.8340    6.9580   46.7950 C   0  0  0  0  0  0  0  0  0  0  0  0
  -13.7150    6.8130   47.6270 C   0  0  0  0  0  0  0  0  0  0  0  0
  -12.4260    7.0400   47.1430 C   0  0  0  0  0  0  0  0  0  0  0  0
  -12.2360    7.4130   45.8120 C   0  0  0  0  0  0  0  0  0  0  0  0
  -13.3290    7.5570   44.9480 C   0  0  0  0  0  0  0  0  0  0  0  0
  -14.6200    7.3340   45.4560 C   0  0  0  0  0  0  0  0  0  0  0  0
  -13.1530    7.9630   43.5390 C   0  0  0  0  0  0  0  0  0  0  0  0
  -12.5930    7.1470   42.6340 C   0  0  0  0  0  0  0  0  0  0  0  0
  -12.4560    7.6110   41.2460 C   0  0  0  0  0  0  0  0  0  0  0  0
  -11.9440    6.9090   40.3810 O   0  0  0  0  0  0  0  0  0  0  0  0
  -12.9580    8.9530   40.9360 C   0  0  0  0  0  0  0  0  0  0  0  0
  -13.5270    9.6970   41.9650 C   0  0  0  0  0  0  0  0  0  0  0  0
  -13.6350    9.2310   43.2500 O   0  0  0  0  0  0  0  0  0  0  0  0
  -14.0140   10.9740   41.6930 C   0  0  0  0  0  0  0  0  0  0  0  0
  -14.5680   11.7050   42.6710 F   0  0  0  0  0  0  0  0  0  0  0  0
  -13.9370   11.5130   40.4100 C   0  0  0  0  0  0  0  0  0  0  0  0
  -13.3640   10.7650   39.3800 C   0  0  0  0  0  0  0  0  0  0  0  0
  -12.8760    9.4870   39.6440 C   0  0  0  0  0  0  0  0  0  0  0  0
  -12.3290    8.8080   38.5900 O   0  0  0  0  0  0  0  0  0  0  0  0
  -18.8090    6.2650   48.2810 C   0  0  0  0  0  0  0  0  0  0  0  0
  -18.6140    7.0120   47.1150 C   0  0  0  0  0  0  0  0  0  0  0  0
  -17.3180    7.2350   46.6340 C   0  0  0  0  0  0  0  0  0  0  0  0
  -16.1950    6.7240   47.3060 C   0  0  0  0  0  0  0  0  0  0  0  0
  -16.4070    5.9860   48.4820 C   0  0  0  0  0  0  0  0  0  0  0  0
  -17.7000    5.7630   48.9680 C   0  0  0  0  0  0  0  0  0  0  0  0
  -20.4900    6.6080   50.0180 N   0  0  0  0  0  0  0  0  0  0  0  0
  -20.1630    6.0000   48.8360 C   0  0  0  0  0  0  0  0  0  0  0  0
  -20.9740    5.2960   48.2500 O   0  0  0  0  0  0  0  0  0  0  0  0
  2  1  2  0
  3  2  1  0
  4  3  2  0
  5  4  1  0
  6  5  2  0
  6  1  1  0
  7  5  1  0
  8  7  2  0
  9  8  1  0
 10  9  2  0
 11  9  1  0
 12 11  2  0
 13 12  1  0
 13  7  1  0
 14 12  1  0
 15 14  1  0
 16 14  2  0
 17 16  1  0
 18 17  2  0
 18 11  1  0
 19 18  1  0
 21 20  2  0
 22 21  1  0
 23 22  2  0
 23  1  1  0
 24 23  1  0
 25 24  2  0
 25 20  1  0
 27 20  1  0
 27 26  1  0
 28 27  2  0
M  END
$$$$
