-9.2
     RDKit          3D

 25 27  0  0  0  0  0  0  0  0999 V2000
   -4.5660    3.1030   44.8130 C   0  0  0  0  0  0  0  0  0  0  0  0
   -3.3630    2.6500   44.2500 C   0  0  0  0  0  0  0  0  0  0  0  0
   -2.1390    3.1300   44.7120 C   0  0  0  0  0  0  0  0  0  0  0  0
   -2.0970    4.0710   45.7410 C   0  0  0  0  0  0  0  0  0  0  0  0
   -3.2810    4.5490   46.3180 C   0  0  0  0  0  0  0  0  0  0  0  0
   -4.5070    4.0530   45.8480 C   0  0  0  0  0  0  0  0  0  0  0  0
   -3.2600    5.5320   47.4180 C   0  0  0  0  0  0  0  0  0  0  0  0
   -3.2010    6.8500   47.1830 C   0  0  0  0  0  0  0  0  0  0  0  0
   -3.1950    7.7830   48.3210 C   0  0  0  0  0  0  0  0  0  0  0  0
   -3.1280    8.9930   48.1480 O   0  0  0  0  0  0  0  0  0  0  0  0
   -3.2700    7.1840   49.6620 C   0  0  0  0  0  0  0  0  0  0  0  0
   -3.3350    5.7990   49.7690 C   0  0  0  0  0  0  0  0  0  0  0  0
   -3.3330    4.9660   48.6810 O   0  0  0  0  0  0  0  0  0  0  0  0
   -3.4050    5.2220   51.0340 C   0  0  0  0  0  0  0  0  0  0  0  0
   -3.4650    3.8890   51.1630 F   0  0  0  0  0  0  0  0  0  0  0  0
   -3.4110    6.0110   52.1830 C   0  0  0  0  0  0  0  0  0  0  0  0
   -3.3470    7.4010   52.0690 C   0  0  0  0  0  0  0  0  0  0  0  0
   -3.2750    7.9910   50.8060 C   0  0  0  0  0  0  0  0  0  0  0  0
   -5.8970    2.5580   44.2990 C   0  0  1  0  0  0  0  0  0  0  0  0
   -5.9730    1.0210   44.3460 C   0  0  0  0  0  0  0  0  0  0  0  0
   -5.4560    0.3210   45.2110 O   0  0  0  0  0  0  0  0  0  0  0  0
   -6.7290    0.4380   43.3640 N   0  0  0  0  0  0  0  0  0  0  0  0
   -7.2030    4.7300   44.6490 C   0  0  0  0  0  0  0  0  0  0  0  0
   -7.1530    3.2240   44.9330 C   0  0  0  0  0  0  0  0  0  0  0  0
   -7.3140    2.9830   46.4370 C   0  0  0  0  0  0  0  0  0  0  0  0
  2  1  2  0
  3  2  1  0
  4  3  2  0
  5  4  1  0
  6  5  2  0
  6  1  1  0
  7  5  1  0
  8  7  2  0
  9  8  1  0
 10  9  2  0
 11  9  1  0
 12 11  2  0
 13  7  1  0
 13 12  1  0
 14 12  1  0
 15 14  1  0
 16 14  2  0
 17 16  1  0
 18 17  2  0
 18 11  1  0
 19  1  1  0
 20 19  1  0
 21 20  2  0
 22 20  1  0
 24 23  1  0
 19 24  1  1
 25 24  1  0
M  END
$$$$
