-9.1
     RDKit          3D

 25 27  0  0  0  0  0  0  0  0999 V2000
   -4.5590    2.7540   44.6440 C   0  0  0  0  0  0  0  0  0  0  0  0
   -3.5310    2.2510   43.8200 C   0  0  0  0  0  0  0  0  0  0  0  0
   -2.2310    2.7260   43.9260 C   0  0  0  0  0  0  0  0  0  0  0  0
   -1.2740    2.2390   43.1240 F   0  0  0  0  0  0  0  0  0  0  0  0
   -1.9010    3.7030   44.8490 C   0  0  0  0  0  0  0  0  0  0  0  0
   -2.8850    4.2180   45.6970 C   0  0  0  0  0  0  0  0  0  0  0  0
   -4.2230    3.7630   45.5830 C   0  0  0  0  0  0  0  0  0  0  0  0
   -5.2280    4.4020   46.5000 C   0  0  0  0  0  0  0  0  0  0  0  0
   -6.4310    4.1700   46.4880 O   0  0  0  0  0  0  0  0  0  0  0  0
   -4.7390    5.3940   47.4920 C   0  0  0  0  0  0  0  0  0  0  0  0
   -3.4490    5.7530   47.4900 C   0  0  0  0  0  0  0  0  0  0  0  0
   -2.5410    5.2560   46.5860 N   0  0  0  0  0  0  0  0  0  0  0  0
   -2.9630    6.7640   48.4490 C   0  0  0  0  0  0  0  0  0  0  0  0
   -2.7880    8.0930   48.0200 C   0  0  0  0  0  0  0  0  0  0  0  0
   -2.3240    9.0710   48.9040 C   0  0  0  0  0  0  0  0  0  0  0  0
   -2.0300    8.7240   50.2180 C   0  0  0  0  0  0  0  0  0  0  0  0
   -2.1950    7.4170   50.6570 C   0  0  0  0  0  0  0  0  0  0  0  0
   -2.6580    6.4440   49.7790 C   0  0  0  0  0  0  0  0  0  0  0  0
   -2.7980    5.1840   50.2230 F   0  0  0  0  0  0  0  0  0  0  0  0
   -1.9030    7.0960   51.9270 F   0  0  0  0  0  0  0  0  0  0  0  0
   -1.5830    9.6670   51.0590 F   0  0  0  0  0  0  0  0  0  0  0  0
   -5.9740    2.2250   44.5080 C   0  0  0  0  0  0  0  0  0  0  0  0
   -5.4220    0.0080   45.1290 O   0  0  0  0  0  0  0  0  0  0  0  0
   -6.1120    0.7120   44.3360 C   0  0  0  0  0  0  0  0  0  0  0  0
   -6.9190    0.3360   43.4370 O   0  0  0  0  0  0  0  0  0  0  0  0
  2  1  2  0
  3  2  1  0
  4  3  1  0
  5  3  2  0
  6  5  1  0
  7  6  2  0
  7  1  1  0
  8  7  1  0
  9  8  2  0
 10  8  1  0
 11 10  2  0
 12  6  1  0
 12 11  1  0
 13 11  1  0
 14 13  2  0
 15 14  1  0
 16 15  2  0
 17 16  1  0
 18 13  1  0
 18 17  2  0
 19 18  1  0
 20 17  1  0
 21 16  1  0
 22  1  1  0
 24 22  1  0
 24 23  1  0
 25 24  2  0
M  CHG  1  23  -1
M  END
$$$$
