-8.6
     RDKit          3D

 22 24  0  0  0  0  0  0  0  0999 V2000
   -4.2420    2.7260   44.4640 C   0  0  0  0  0  0  0  0  0  0  0  0
   -3.1110    2.1380   43.8620 C   0  0  0  0  0  0  0  0  0  0  0  0
   -1.8130    2.5000   44.2260 C   0  0  0  0  0  0  0  0  0  0  0  0
   -1.6150    3.4600   45.2080 C   0  0  0  0  0  0  0  0  0  0  0  0
   -2.7160    4.0490   45.8310 C   0  0  0  0  0  0  0  0  0  0  0  0
   -4.0260    3.6830   45.4830 C   0  0  0  0  0  0  0  0  0  0  0  0
   -5.1250    4.3400   46.2420 C   0  0  0  0  0  0  0  0  0  0  0  0
   -6.3170    4.0800   46.1340 O   0  0  0  0  0  0  0  0  0  0  0  0
   -4.7370    5.3820   47.2090 C   0  0  0  0  0  0  0  0  0  0  0  0
   -3.4430    5.6490   47.4150 C   0  0  0  0  0  0  0  0  0  0  0  0
   -2.4090    4.9930   46.7820 O   0  0  0  0  0  0  0  0  0  0  0  0
   -3.0140    6.6830   48.3710 C   0  0  0  0  0  0  0  0  0  0  0  0
   -2.8220    8.0120   47.9580 C   0  0  0  0  0  0  0  0  0  0  0  0
   -2.4010    8.9890   48.8660 C   0  0  0  0  0  0  0  0  0  0  0  0
   -2.1620    8.6530   50.1970 C   0  0  0  0  0  0  0  0  0  0  0  0
   -2.3410    7.3380   50.6200 C   0  0  0  0  0  0  0  0  0  0  0  0
   -2.7610    6.3670   49.7120 C   0  0  0  0  0  0  0  0  0  0  0  0
   -2.9330    5.1140   50.1620 F   0  0  0  0  0  0  0  0  0  0  0  0
   -5.6370    2.3160   44.0280 C   0  0  0  0  0  0  0  0  0  0  0  0
   -5.5040    0.3160   45.2920 O   0  0  0  0  0  0  0  0  0  0  0  0
   -6.0160    0.8540   44.2670 C   0  0  0  0  0  0  0  0  0  0  0  0
   -6.8100    0.3500   43.4210 O   0  0  0  0  0  0  0  0  0  0  0  0
  2  1  2  0
  3  2  1  0
  4  3  2  0
  5  4  1  0
  6  5  2  0
  6  1  1  0
  7  6  1  0
  8  7  2  0
  9  7  1  0
 10  9  2  0
 11  5  1  0
 11 10  1  0
 12 10  1  0
 13 12  2  0
 14 13  1  0
 15 14  2  0
 16 15  1  0
 17 12  1  0
 17 16  2  0
 18 17  1  0
 19  1  1  0
 21 20  1  0
 21 19  1  0
 22 21  2  0
M  CHG  1  20  -1
M  END
$$$$
