-7.6
     RDKit          3D

 26 27  0  0  0  0  0  0  0  0999 V2000
  -12.9550   10.3020   43.4140 C   0  0  0  0  0  0  0  0  0  0  0  0
  -13.0880    8.9060   43.3290 C   0  0  0  0  0  0  0  0  0  0  0  0
  -13.3250    8.2680   42.1050 C   0  0  0  0  0  0  0  0  0  0  0  0
  -13.4070    9.0550   40.9510 C   0  0  0  0  0  0  0  0  0  0  0  0
  -13.2730   10.4540   41.0010 C   0  0  0  0  0  0  0  0  0  0  0  0
  -13.0470   11.0670   42.2490 C   0  0  0  0  0  0  0  0  0  0  0  0
  -13.6610   11.1710   45.6580 C   0  0  0  0  0  0  0  0  0  0  0  0
  -14.8770   11.0740   45.6100 O   0  0  0  0  0  0  0  0  0  0  0  0
  -12.7260   10.8320   44.7020 N   0  0  0  0  0  0  0  0  0  0  0  0
  -11.7590   14.8650   48.1350 F   0  0  0  0  0  0  0  0  0  0  0  0
  -12.1240   13.5760   48.1020 C   0  0  0  0  0  0  0  0  0  0  0  0
  -11.9450   12.7870   49.2310 C   0  0  0  0  0  0  0  0  0  0  0  0
  -12.3300   11.4450   49.2040 C   0  0  0  0  0  0  0  0  0  0  0  0
  -12.8840   10.8840   48.0410 C   0  0  0  0  0  0  0  0  0  0  0  0
  -13.0560   11.7050   46.9080 C   0  0  0  0  0  0  0  0  0  0  0  0
  -12.6780   13.0540   46.9410 C   0  0  0  0  0  0  0  0  0  0  0  0
  -13.3040    9.4400   48.0450 C   0  0  0  0  0  0  0  0  0  0  0  0
  -13.3710   11.2680   39.7220 C   0  0  0  0  0  0  0  0  0  0  0  0
  -12.3150   11.8290   39.2990 O   0  0  0  0  0  0  0  0  0  0  0  0
  -14.5150   11.3220   39.1660 O   0  0  0  0  0  0  0  0  0  0  0  0
  -13.4460    6.7710   41.9690 C   0  0  0  0  0  0  0  0  0  0  0  0
  -14.7680    6.3300   42.2530 O   0  0  0  0  0  0  0  0  0  0  0  0
  -14.8050    5.6970   43.5110 C   0  0  0  0  0  0  0  0  0  0  0  0
  -15.2340    6.5820   44.4350 F   0  0  0  0  0  0  0  0  0  0  0  0
  -15.6530    4.6500   43.4940 F   0  0  0  0  0  0  0  0  0  0  0  0
  -13.5760    5.2720   43.8640 F   0  0  0  0  0  0  0  0  0  0  0  0
  2  1  2  0
  3  2  1  0
  4  3  2  0
  5  4  1  0
  6  5  2  0
  6  1  1  0
  8  7  2  0
  9  1  1  0
  9  7  1  0
 11 10  1  0
 12 11  2  0
 13 12  1  0
 14 13  2  0
 15 14  1  0
 15  7  1  0
 16 15  2  0
 16 11  1  0
 17 14  1  0
 18  5  1  0
 19 18  2  0
 20 18  1  0
 21  3  1  0
 22 21  1  0
 23 22  1  0
 24 23  1  0
 25 23  1  0
 26 23  1  0
M  CHG  1  20  -1
M  END
$$$$
