-8.9
     RDKit          3D

 23 25  0  0  0  0  0  0  0  0999 V2000
   -4.7820    2.8270   44.5630 C   0  0  0  0  0  0  0  0  0  0  0  0
   -3.7050    2.0450   44.0950 C   0  0  0  0  0  0  0  0  0  0  0  0
   -2.3940    2.3860   44.4050 C   0  0  0  0  0  0  0  0  0  0  0  0
   -1.3860    1.6310   43.9460 F   0  0  0  0  0  0  0  0  0  0  0  0
   -2.1150    3.4770   45.2100 C   0  0  0  0  0  0  0  0  0  0  0  0
   -3.1680    4.2550   45.6900 C   0  0  0  0  0  0  0  0  0  0  0  0
   -4.4970    3.9670   45.3410 C   0  0  0  0  0  0  0  0  0  0  0  0
   -5.5230    4.9320   45.8140 C   0  0  0  0  0  0  0  0  0  0  0  0
   -6.6080    5.1180   45.2770 O   0  0  0  0  0  0  0  0  0  0  0  0
   -5.1300    5.7970   46.9400 C   0  0  0  0  0  0  0  0  0  0  0  0
   -3.8280    5.9230   47.2180 C   0  0  0  0  0  0  0  0  0  0  0  0
   -2.8150    5.2830   46.5330 O   0  0  0  0  0  0  0  0  0  0  0  0
   -3.3670    6.7990   48.3040 C   0  0  0  0  0  0  0  0  0  0  0  0
   -2.9170    8.0910   47.9840 C   0  0  0  0  0  0  0  0  0  0  0  0
   -2.4680    8.9550   48.9830 C   0  0  0  0  0  0  0  0  0  0  0  0
   -2.4640    8.5380   50.3100 C   0  0  0  0  0  0  0  0  0  0  0  0
   -2.9100    7.2570   50.6410 C   0  0  0  0  0  0  0  0  0  0  0  0
   -3.3700    6.3770   49.6490 C   0  0  0  0  0  0  0  0  0  0  0  0
   -3.8460    5.0030   50.0420 C   0  0  0  0  0  0  0  0  0  0  0  0
   -6.1780    2.2910   44.3320 C   0  0  0  0  0  0  0  0  0  0  0  0
   -6.7740    0.2310   43.2970 O   0  0  0  0  0  0  0  0  0  0  0  0
   -6.1440    0.7580   44.2590 C   0  0  0  0  0  0  0  0  0  0  0  0
   -5.4950    0.1980   45.1910 O   0  0  0  0  0  0  0  0  0  0  0  0
  2  1  2  0
  3  2  1  0
  4  3  1  0
  5  3  2  0
  6  5  1  0
  7  6  2  0
  7  1  1  0
  8  7  1  0
  9  8  2  0
 10  8  1  0
 11 10  2  0
 12  6  1  0
 12 11  1  0
 13 11  1  0
 14 13  2  0
 15 14  1  0
 16 15  2  0
 17 16  1  0
 18 13  1  0
 18 17  2  0
 19 18  1  0
 20  1  1  0
 22 21  1  0
 22 20  1  0
 23 22  2  0
M  CHG  1  21  -1
M  END
$$$$
